dynawo/sources/Modeler/DataInterface/PowSyblIIDM/test/resources/line_initial_pq.xiidm
<?xml version="1.0" encoding="UTF-8"?>
<iidm:network xmlns:iidm="http://www.powsybl.org/schema/iidm/1_4" id="test" caseDate="2022-01-01T00:00:00.000+01:00" forecastDistance="0" sourceFormat="test">
    <iidm:substation id="S1">
        <iidm:voltageLevel id="VL1" nominalV="380.0" topologyKind="BUS_BREAKER">
            <iidm:busBreakerTopology>
                <iidm:bus id="VL1_BUS1" v="380.0" angle="0.0"/>
            </iidm:busBreakerTopology>
        </iidm:voltageLevel>
        <iidm:voltageLevel id="VL2" nominalV="225.0" topologyKind="BUS_BREAKER">
            <iidm:busBreakerTopology>
                <iidm:bus id="VL2_BUS1"/>
            </iidm:busBreakerTopology>
        </iidm:voltageLevel>
    </iidm:substation>
    <iidm:substation id="S2">
        <iidm:voltageLevel id="VL3" nominalV="360.0" topologyKind="BUS_BREAKER">
            <iidm:busBreakerTopology>
                <iidm:bus id="VL3_BUS1" v="360.0" angle="0.0"/>
            </iidm:busBreakerTopology>
        </iidm:voltageLevel>
        <iidm:voltageLevel id="VL4" nominalV="225.0" topologyKind="BUS_BREAKER">
            <iidm:busBreakerTopology>
                <iidm:bus id="VL4_BUS1"/>
            </iidm:busBreakerTopology>
        </iidm:voltageLevel>
    </iidm:substation>
    <iidm:line id="VL1_VL3" r="3.0" x="33.33" g1="1.0" b1="0.2" g2="2.0" b2="0.4"
        voltageLevelId1="VL1" bus1="VL1_BUS1" connectableBus1="VL1_BUS1"
        voltageLevelId2="VL3" bus2="VL3_BUS1" connectableBus2="VL3_BUS1"
        p1="0.0" q1="0.0" p2="0.0" q2="0.0"/>
</iidm:network>
